<?xml version='1.0' encoding='UTF-8'?>
<additional>
  <battery id="battery_108532" vehicle="108532" capacity="15000.0" />
  <battery id="battery_77083" vehicle="77083" capacity="15000.0" />
  <battery id="battery_180277" vehicle="180277" capacity="15000.0" />
  <battery id="battery_107409" vehicle="107409" capacity="15000.0" />
  <battery id="battery_215404" vehicle="215404" capacity="15000.0" />
  <battery id="battery_183643" vehicle="183643" capacity="15000.0" />
  <battery id="battery_208838" vehicle="208838" capacity="15000.0" />
  <battery id="battery_66064" vehicle="66064" capacity="15000.0" />
  <battery id="battery_253615" vehicle="253615" capacity="15000.0" />
  <battery id="battery_201402" vehicle="201402" capacity="15000.0" />
  <battery id="battery_118574" vehicle="118574" capacity="15000.0" />
  <battery id="battery_41734" vehicle="41734" capacity="15000.0" />
  <battery id="battery_211440" vehicle="211440" capacity="15000.0" />
  <battery id="battery_217312" vehicle="217312" capacity="15000.0" />
  <battery id="battery_315769" vehicle="315769" capacity="15000.0" />
  <battery id="battery_76747" vehicle="76747" capacity="15000.0" />
  <battery id="battery_242887" vehicle="242887" capacity="15000.0" />
  <battery id="battery_272248" vehicle="272248" capacity="15000.0" />
  <battery id="battery_47548" vehicle="47548" capacity="15000.0" />
  <battery id="battery_295590" vehicle="295590" capacity="15000.0" />
  <battery id="battery_148281" vehicle="148281" capacity="15000.0" />
  <battery id="battery_320294" vehicle="320294" capacity="15000.0" />
  <battery id="battery_53973" vehicle="53973" capacity="15000.0" />
  <battery id="battery_32517" vehicle="32517" capacity="15000.0" />
  <battery id="battery_41595" vehicle="41595" capacity="15000.0" />
  <battery id="battery_78050" vehicle="78050" capacity="15000.0" />
  <battery id="battery_211269" vehicle="211269" capacity="15000.0" />
  <battery id="battery_67772" vehicle="67772" capacity="15000.0" />
  <battery id="battery_46641" vehicle="46641" capacity="15000.0" />
  <battery id="battery_201507" vehicle="201507" capacity="15000.0" />
  <battery id="battery_198314" vehicle="198314" capacity="15000.0" />
  <battery id="battery_89375" vehicle="89375" capacity="15000.0" />
  <battery id="battery_319699" vehicle="319699" capacity="15000.0" />
  <battery id="battery_62098" vehicle="62098" capacity="15000.0" />
  <battery id="battery_191377" vehicle="191377" capacity="15000.0" />
  <battery id="battery_19635" vehicle="19635" capacity="15000.0" />
  <battery id="battery_277195" vehicle="277195" capacity="15000.0" />
  <battery id="battery_314149" vehicle="314149" capacity="15000.0" />
  <battery id="battery_318237" vehicle="318237" capacity="15000.0" />
  <battery id="battery_247212" vehicle="247212" capacity="15000.0" />
  <battery id="battery_154335" vehicle="154335" capacity="15000.0" />
  <battery id="battery_200671" vehicle="200671" capacity="15000.0" />
  <battery id="battery_108866" vehicle="108866" capacity="15000.0" />
  <battery id="battery_216109" vehicle="216109" capacity="15000.0" />
  <battery id="battery_31157" vehicle="31157" capacity="15000.0" />
  <battery id="battery_225439" vehicle="225439" capacity="15000.0" />
  <battery id="battery_82804" vehicle="82804" capacity="15000.0" />
  <battery id="battery_65431" vehicle="65431" capacity="15000.0" />
  <battery id="battery_298007" vehicle="298007" capacity="15000.0" />
  <battery id="battery_290068" vehicle="290068" capacity="15000.0" />
  <battery id="battery_274516" vehicle="274516" capacity="15000.0" />
  <battery id="battery_42524" vehicle="42524" capacity="15000.0" />
  <battery id="battery_312814" vehicle="312814" capacity="15000.0" />
  <battery id="battery_180328" vehicle="180328" capacity="15000.0" />
  <battery id="battery_296834" vehicle="296834" capacity="15000.0" />
  <battery id="battery_188246" vehicle="188246" capacity="15000.0" />
  <battery id="battery_24692" vehicle="24692" capacity="15000.0" />
  <battery id="battery_176965" vehicle="176965" capacity="15000.0" />
  <battery id="battery_191106" vehicle="191106" capacity="15000.0" />
  <battery id="battery_133711" vehicle="133711" capacity="15000.0" />
  <battery id="battery_292576" vehicle="292576" capacity="15000.0" />
  <battery id="battery_51819" vehicle="51819" capacity="15000.0" />
  <battery id="battery_188715" vehicle="188715" capacity="15000.0" />
  <battery id="battery_186217" vehicle="186217" capacity="15000.0" />
  <battery id="battery_308493" vehicle="308493" capacity="15000.0" />
  <battery id="battery_140073" vehicle="140073" capacity="15000.0" />
  <battery id="battery_203582" vehicle="203582" capacity="15000.0" />
  <battery id="battery_37824" vehicle="37824" capacity="15000.0" />
  <battery id="battery_63" vehicle="63" capacity="15000.0" />
  <battery id="battery_199110" vehicle="199110" capacity="15000.0" />
  <battery id="battery_113652" vehicle="113652" capacity="15000.0" />
  <battery id="battery_261159" vehicle="261159" capacity="15000.0" />
  <battery id="battery_284398" vehicle="284398" capacity="15000.0" />
  <battery id="battery_35298" vehicle="35298" capacity="15000.0" />
  <battery id="battery_253142" vehicle="253142" capacity="15000.0" />
  <battery id="battery_44896" vehicle="44896" capacity="15000.0" />
  <battery id="battery_189598" vehicle="189598" capacity="15000.0" />
  <battery id="battery_173466" vehicle="173466" capacity="15000.0" />
  <battery id="battery_247176" vehicle="247176" capacity="15000.0" />
  <battery id="battery_37593" vehicle="37593" capacity="15000.0" />
  <battery id="battery_52517" vehicle="52517" capacity="15000.0" />
  <battery id="battery_70601" vehicle="70601" capacity="15000.0" />
  <battery id="battery_83887" vehicle="83887" capacity="15000.0" />
  <battery id="battery_108537" vehicle="108537" capacity="15000.0" />
  <battery id="battery_49988" vehicle="49988" capacity="15000.0" />
  <battery id="battery_244637" vehicle="244637" capacity="15000.0" />
  <battery id="battery_264137" vehicle="264137" capacity="15000.0" />
  <battery id="battery_193339" vehicle="193339" capacity="15000.0" />
  <battery id="battery_252110" vehicle="252110" capacity="15000.0" />
  <battery id="battery_19786" vehicle="19786" capacity="15000.0" />
  <battery id="battery_253853" vehicle="253853" capacity="15000.0" />
  <battery id="battery_290114" vehicle="290114" capacity="15000.0" />
  <battery id="battery_315489" vehicle="315489" capacity="15000.0" />
  <battery id="battery_183853" vehicle="183853" capacity="15000.0" />
  <battery id="battery_129424" vehicle="129424" capacity="15000.0" />
  <battery id="battery_274419" vehicle="274419" capacity="15000.0" />
  <battery id="battery_45698" vehicle="45698" capacity="15000.0" />
  <battery id="battery_153376" vehicle="153376" capacity="15000.0" />
  <battery id="battery_187344" vehicle="187344" capacity="15000.0" />
  <battery id="battery_158391" vehicle="158391" capacity="15000.0" />
  <battery id="battery_35264" vehicle="35264" capacity="15000.0" />
  <battery id="battery_206283" vehicle="206283" capacity="15000.0" />
  <battery id="battery_184231" vehicle="184231" capacity="15000.0" />
  <battery id="battery_242717" vehicle="242717" capacity="15000.0" />
  <battery id="battery_165711" vehicle="165711" capacity="15000.0" />
  <battery id="battery_7419" vehicle="7419" capacity="15000.0" />
  <battery id="battery_239275" vehicle="239275" capacity="15000.0" />
  <battery id="battery_261344" vehicle="261344" capacity="15000.0" />
  <battery id="battery_182974" vehicle="182974" capacity="15000.0" />
  <battery id="battery_235086" vehicle="235086" capacity="15000.0" />
  <battery id="battery_16993" vehicle="16993" capacity="15000.0" />
  <battery id="battery_209994" vehicle="209994" capacity="15000.0" />
  <battery id="battery_254754" vehicle="254754" capacity="15000.0" />
  <battery id="battery_50503" vehicle="50503" capacity="15000.0" />
  <battery id="battery_125621" vehicle="125621" capacity="15000.0" />
  <battery id="battery_51424" vehicle="51424" capacity="15000.0" />
  <battery id="battery_225776" vehicle="225776" capacity="15000.0" />
  <battery id="battery_41611" vehicle="41611" capacity="15000.0" />
  <battery id="battery_163280" vehicle="163280" capacity="15000.0" />
  <battery id="battery_139914" vehicle="139914" capacity="15000.0" />
  <battery id="battery_107684" vehicle="107684" capacity="15000.0" />
  <battery id="battery_256113" vehicle="256113" capacity="15000.0" />
  <battery id="battery_74394" vehicle="74394" capacity="15000.0" />
  <battery id="battery_312760" vehicle="312760" capacity="15000.0" />
  <battery id="battery_17251" vehicle="17251" capacity="15000.0" />
  <battery id="battery_88428" vehicle="88428" capacity="15000.0" />
  <battery id="battery_51111" vehicle="51111" capacity="15000.0" />
  <battery id="battery_49606" vehicle="49606" capacity="15000.0" />
  <battery id="battery_109859" vehicle="109859" capacity="15000.0" />
  <battery id="battery_154974" vehicle="154974" capacity="15000.0" />
  <battery id="battery_37979" vehicle="37979" capacity="15000.0" />
  <battery id="battery_61745" vehicle="61745" capacity="15000.0" />
  <battery id="battery_128233" vehicle="128233" capacity="15000.0" />
  <battery id="battery_28414" vehicle="28414" capacity="15000.0" />
  <battery id="battery_11676" vehicle="11676" capacity="15000.0" />
  <battery id="battery_131473" vehicle="131473" capacity="15000.0" />
  <battery id="battery_87328" vehicle="87328" capacity="15000.0" />
  <battery id="battery_234395" vehicle="234395" capacity="15000.0" />
  <battery id="battery_67166" vehicle="67166" capacity="15000.0" />
  <battery id="battery_233099" vehicle="233099" capacity="15000.0" />
  <battery id="battery_148526" vehicle="148526" capacity="15000.0" />
  <battery id="battery_144969" vehicle="144969" capacity="15000.0" />
  <battery id="battery_34903" vehicle="34903" capacity="15000.0" />
  <battery id="battery_230251" vehicle="230251" capacity="15000.0" />
  <battery id="battery_222877" vehicle="222877" capacity="15000.0" />
  <battery id="battery_181911" vehicle="181911" capacity="15000.0" />
  <battery id="battery_165060" vehicle="165060" capacity="15000.0" />
  <battery id="battery_71099" vehicle="71099" capacity="15000.0" />
  <battery id="battery_80221" vehicle="80221" capacity="15000.0" />
  <battery id="battery_303938" vehicle="303938" capacity="15000.0" />
  <battery id="battery_179409" vehicle="179409" capacity="15000.0" />
  <battery id="battery_14720" vehicle="14720" capacity="15000.0" />
  <battery id="battery_85931" vehicle="85931" capacity="15000.0" />
  <battery id="battery_9345" vehicle="9345" capacity="15000.0" />
  <battery id="battery_230650" vehicle="230650" capacity="15000.0" />
  <battery id="battery_107368" vehicle="107368" capacity="15000.0" />
  <battery id="battery_137655" vehicle="137655" capacity="15000.0" />
  <battery id="battery_30820" vehicle="30820" capacity="15000.0" />
  <battery id="battery_33232" vehicle="33232" capacity="15000.0" />
  <battery id="battery_115166" vehicle="115166" capacity="15000.0" />
  <battery id="battery_33488" vehicle="33488" capacity="15000.0" />
  <battery id="battery_27511" vehicle="27511" capacity="15000.0" />
  <battery id="battery_167079" vehicle="167079" capacity="15000.0" />
  <battery id="battery_317337" vehicle="317337" capacity="15000.0" />
  <battery id="battery_177969" vehicle="177969" capacity="15000.0" />
  <battery id="battery_142524" vehicle="142524" capacity="15000.0" />
  <battery id="battery_147938" vehicle="147938" capacity="15000.0" />
  <battery id="battery_21999" vehicle="21999" capacity="15000.0" />
  <battery id="battery_196010" vehicle="196010" capacity="15000.0" />
  <battery id="battery_39021" vehicle="39021" capacity="15000.0" />
  <battery id="battery_15987" vehicle="15987" capacity="15000.0" />
  <battery id="battery_166980" vehicle="166980" capacity="15000.0" />
  <battery id="battery_245252" vehicle="245252" capacity="15000.0" />
  <battery id="battery_212724" vehicle="212724" capacity="15000.0" />
  <battery id="battery_243986" vehicle="243986" capacity="15000.0" />
  <battery id="battery_168419" vehicle="168419" capacity="15000.0" />
  <battery id="battery_211937" vehicle="211937" capacity="15000.0" />
  <battery id="battery_191659" vehicle="191659" capacity="15000.0" />
  <battery id="battery_135742" vehicle="135742" capacity="15000.0" />
  <battery id="battery_223785" vehicle="223785" capacity="15000.0" />
  <battery id="battery_60005" vehicle="60005" capacity="15000.0" />
  <battery id="battery_267206" vehicle="267206" capacity="15000.0" />
  <battery id="battery_62935" vehicle="62935" capacity="15000.0" />
  <battery id="battery_131493" vehicle="131493" capacity="15000.0" />
  <battery id="battery_157126" vehicle="157126" capacity="15000.0" />
  <battery id="battery_47512" vehicle="47512" capacity="15000.0" />
  <battery id="battery_185846" vehicle="185846" capacity="15000.0" />
  <battery id="battery_43842" vehicle="43842" capacity="15000.0" />
  <battery id="battery_285467" vehicle="285467" capacity="15000.0" />
  <battery id="battery_107592" vehicle="107592" capacity="15000.0" />
  <battery id="battery_303520" vehicle="303520" capacity="15000.0" />
  <battery id="battery_49682" vehicle="49682" capacity="15000.0" />
  <battery id="battery_132878" vehicle="132878" capacity="15000.0" />
  <battery id="battery_251953" vehicle="251953" capacity="15000.0" />
  <battery id="battery_243651" vehicle="243651" capacity="15000.0" />
  <battery id="battery_266499" vehicle="266499" capacity="15000.0" />
  <battery id="battery_66235" vehicle="66235" capacity="15000.0" />
  <battery id="battery_13475" vehicle="13475" capacity="15000.0" />
  <battery id="battery_250667" vehicle="250667" capacity="15000.0" />
  <battery id="battery_63553" vehicle="63553" capacity="15000.0" />
  <battery id="battery_58625" vehicle="58625" capacity="15000.0" />
  <battery id="battery_147589" vehicle="147589" capacity="15000.0" />
  <battery id="battery_71145" vehicle="71145" capacity="15000.0" />
  <battery id="battery_256614" vehicle="256614" capacity="15000.0" />
  <battery id="battery_78264" vehicle="78264" capacity="15000.0" />
  <battery id="battery_158999" vehicle="158999" capacity="15000.0" />
  <battery id="battery_262901" vehicle="262901" capacity="15000.0" />
  <battery id="battery_241372" vehicle="241372" capacity="15000.0" />
  <battery id="battery_60499" vehicle="60499" capacity="15000.0" />
  <battery id="battery_288234" vehicle="288234" capacity="15000.0" />
  <battery id="battery_155426" vehicle="155426" capacity="15000.0" />
  <battery id="battery_149032" vehicle="149032" capacity="15000.0" />
  <battery id="battery_272576" vehicle="272576" capacity="15000.0" />
  <battery id="battery_204413" vehicle="204413" capacity="15000.0" />
  <battery id="battery_15512" vehicle="15512" capacity="15000.0" />
  <battery id="battery_193005" vehicle="193005" capacity="15000.0" />
  <battery id="battery_121893" vehicle="121893" capacity="15000.0" />
  <battery id="battery_218096" vehicle="218096" capacity="15000.0" />
  <battery id="battery_295321" vehicle="295321" capacity="15000.0" />
  <battery id="battery_43153" vehicle="43153" capacity="15000.0" />
  <battery id="battery_49044" vehicle="49044" capacity="15000.0" />
  <battery id="battery_184337" vehicle="184337" capacity="15000.0" />
  <battery id="battery_217669" vehicle="217669" capacity="15000.0" />
  <battery id="battery_178009" vehicle="178009" capacity="15000.0" />
  <battery id="battery_266902" vehicle="266902" capacity="15000.0" />
  <battery id="battery_33302" vehicle="33302" capacity="15000.0" />
  <battery id="battery_161943" vehicle="161943" capacity="15000.0" />
  <battery id="battery_292237" vehicle="292237" capacity="15000.0" />
  <battery id="battery_111663" vehicle="111663" capacity="15000.0" />
  <battery id="battery_232408" vehicle="232408" capacity="15000.0" />
  <battery id="battery_257357" vehicle="257357" capacity="15000.0" />
  <battery id="battery_63292" vehicle="63292" capacity="15000.0" />
  <battery id="battery_239098" vehicle="239098" capacity="15000.0" />
  <battery id="battery_249444" vehicle="249444" capacity="15000.0" />
  <battery id="battery_112799" vehicle="112799" capacity="15000.0" />
  <battery id="battery_116618" vehicle="116618" capacity="15000.0" />
  <battery id="battery_31206" vehicle="31206" capacity="15000.0" />
  <battery id="battery_235732" vehicle="235732" capacity="15000.0" />
  <battery id="battery_217102" vehicle="217102" capacity="15000.0" />
  <battery id="battery_283" vehicle="283" capacity="15000.0" />
  <battery id="battery_52910" vehicle="52910" capacity="15000.0" />
  <battery id="battery_74775" vehicle="74775" capacity="15000.0" />
  <battery id="battery_163760" vehicle="163760" capacity="15000.0" />
  <battery id="battery_175206" vehicle="175206" capacity="15000.0" />
  <battery id="battery_128363" vehicle="128363" capacity="15000.0" />
  <battery id="battery_268092" vehicle="268092" capacity="15000.0" />
  <battery id="battery_222768" vehicle="222768" capacity="15000.0" />
  <battery id="battery_25979" vehicle="25979" capacity="15000.0" />
  <battery id="battery_44140" vehicle="44140" capacity="15000.0" />
  <battery id="battery_239131" vehicle="239131" capacity="15000.0" />
  <battery id="battery_284373" vehicle="284373" capacity="15000.0" />
  <battery id="battery_187437" vehicle="187437" capacity="15000.0" />
  <battery id="battery_280640" vehicle="280640" capacity="15000.0" />
  <battery id="battery_29619" vehicle="29619" capacity="15000.0" />
  <battery id="battery_121108" vehicle="121108" capacity="15000.0" />
  <battery id="battery_127196" vehicle="127196" capacity="15000.0" />
  <battery id="battery_134729" vehicle="134729" capacity="15000.0" />
  <battery id="battery_228792" vehicle="228792" capacity="15000.0" />
  <battery id="battery_276414" vehicle="276414" capacity="15000.0" />
  <battery id="battery_135988" vehicle="135988" capacity="15000.0" />
  <battery id="battery_315656" vehicle="315656" capacity="15000.0" />
  <battery id="battery_15659" vehicle="15659" capacity="15000.0" />
  <battery id="battery_320232" vehicle="320232" capacity="15000.0" />
  <battery id="battery_181095" vehicle="181095" capacity="15000.0" />
  <battery id="battery_174797" vehicle="174797" capacity="15000.0" />
  <battery id="battery_181749" vehicle="181749" capacity="15000.0" />
  <battery id="battery_315536" vehicle="315536" capacity="15000.0" />
  <battery id="battery_54179" vehicle="54179" capacity="15000.0" />
  <battery id="battery_185915" vehicle="185915" capacity="15000.0" />
  <battery id="battery_186275" vehicle="186275" capacity="15000.0" />
  <battery id="battery_212312" vehicle="212312" capacity="15000.0" />
  <battery id="battery_288494" vehicle="288494" capacity="15000.0" />
  <battery id="battery_79074" vehicle="79074" capacity="15000.0" />
  <battery id="battery_191365" vehicle="191365" capacity="15000.0" />
  <battery id="battery_169057" vehicle="169057" capacity="15000.0" />
  <battery id="battery_305579" vehicle="305579" capacity="15000.0" />
  <battery id="battery_141093" vehicle="141093" capacity="15000.0" />
  <battery id="battery_12822" vehicle="12822" capacity="15000.0" />
  <battery id="battery_32187" vehicle="32187" capacity="15000.0" />
  <battery id="battery_108199" vehicle="108199" capacity="15000.0" />
  <battery id="battery_279818" vehicle="279818" capacity="15000.0" />
  <battery id="battery_19616" vehicle="19616" capacity="15000.0" />
  <battery id="battery_165051" vehicle="165051" capacity="15000.0" />
  <battery id="battery_111122" vehicle="111122" capacity="15000.0" />
  <battery id="battery_297947" vehicle="297947" capacity="15000.0" />
  <battery id="battery_281981" vehicle="281981" capacity="15000.0" />
  <battery id="battery_148269" vehicle="148269" capacity="15000.0" />
  <battery id="battery_246705" vehicle="246705" capacity="15000.0" />
  <battery id="battery_199710" vehicle="199710" capacity="15000.0" />
  <battery id="battery_239185" vehicle="239185" capacity="15000.0" />
  <battery id="battery_143085" vehicle="143085" capacity="15000.0" />
  <battery id="battery_60759" vehicle="60759" capacity="15000.0" />
  <battery id="battery_54587" vehicle="54587" capacity="15000.0" />
  <battery id="battery_224265" vehicle="224265" capacity="15000.0" />
  <battery id="battery_243694" vehicle="243694" capacity="15000.0" />
  <battery id="battery_7790" vehicle="7790" capacity="15000.0" />
  <battery id="battery_51229" vehicle="51229" capacity="15000.0" />
  <battery id="battery_291119" vehicle="291119" capacity="15000.0" />
  <battery id="battery_46075" vehicle="46075" capacity="15000.0" />
  <battery id="battery_248149" vehicle="248149" capacity="15000.0" />
  <battery id="battery_14249" vehicle="14249" capacity="15000.0" />
  <battery id="battery_237439" vehicle="237439" capacity="15000.0" />
  <battery id="battery_312829" vehicle="312829" capacity="15000.0" />
  <battery id="battery_49090" vehicle="49090" capacity="15000.0" />
  <battery id="battery_127739" vehicle="127739" capacity="15000.0" />
  <battery id="battery_214699" vehicle="214699" capacity="15000.0" />
  <battery id="battery_155570" vehicle="155570" capacity="15000.0" />
  <battery id="battery_249164" vehicle="249164" capacity="15000.0" />
  <battery id="battery_21717" vehicle="21717" capacity="15000.0" />
  <battery id="battery_262775" vehicle="262775" capacity="15000.0" />
  <battery id="battery_286450" vehicle="286450" capacity="15000.0" />
  <battery id="battery_273426" vehicle="273426" capacity="15000.0" />
  <battery id="battery_38624" vehicle="38624" capacity="15000.0" />
  <battery id="battery_188742" vehicle="188742" capacity="15000.0" />
  <battery id="battery_19459" vehicle="19459" capacity="15000.0" />
  <battery id="battery_65537" vehicle="65537" capacity="15000.0" />
  <battery id="battery_294984" vehicle="294984" capacity="15000.0" />
  <battery id="battery_76228" vehicle="76228" capacity="15000.0" />
  <battery id="battery_48671" vehicle="48671" capacity="15000.0" />
  <battery id="battery_138586" vehicle="138586" capacity="15000.0" />
  <battery id="battery_240646" vehicle="240646" capacity="15000.0" />
  <battery id="battery_240860" vehicle="240860" capacity="15000.0" />
  <battery id="battery_257046" vehicle="257046" capacity="15000.0" />
  <battery id="battery_203902" vehicle="203902" capacity="15000.0" />
  <battery id="battery_241391" vehicle="241391" capacity="15000.0" />
  <battery id="battery_48707" vehicle="48707" capacity="15000.0" />
  <battery id="battery_22260" vehicle="22260" capacity="15000.0" />
  <battery id="battery_119319" vehicle="119319" capacity="15000.0" />
  <battery id="battery_129889" vehicle="129889" capacity="15000.0" />
  <battery id="battery_283295" vehicle="283295" capacity="15000.0" />
  <battery id="battery_15243" vehicle="15243" capacity="15000.0" />
  <battery id="battery_258985" vehicle="258985" capacity="15000.0" />
  <battery id="battery_33384" vehicle="33384" capacity="15000.0" />
  <battery id="battery_260433" vehicle="260433" capacity="15000.0" />
  <battery id="battery_277584" vehicle="277584" capacity="15000.0" />
  <battery id="battery_195066" vehicle="195066" capacity="15000.0" />
  <battery id="battery_27678" vehicle="27678" capacity="15000.0" />
  <battery id="battery_25006" vehicle="25006" capacity="15000.0" />
  <battery id="battery_191807" vehicle="191807" capacity="15000.0" />
  <battery id="battery_197052" vehicle="197052" capacity="15000.0" />
  <battery id="battery_116862" vehicle="116862" capacity="15000.0" />
  <battery id="battery_17950" vehicle="17950" capacity="15000.0" />
  <battery id="battery_244799" vehicle="244799" capacity="15000.0" />
  <battery id="battery_166180" vehicle="166180" capacity="15000.0" />
  <battery id="battery_25378" vehicle="25378" capacity="15000.0" />
  <battery id="battery_226939" vehicle="226939" capacity="15000.0" />
  <battery id="battery_50237" vehicle="50237" capacity="15000.0" />
  <battery id="battery_282623" vehicle="282623" capacity="15000.0" />
  <battery id="battery_109990" vehicle="109990" capacity="15000.0" />
  <battery id="battery_119508" vehicle="119508" capacity="15000.0" />
  <battery id="battery_8629" vehicle="8629" capacity="15000.0" />
  <battery id="battery_197599" vehicle="197599" capacity="15000.0" />
  <battery id="battery_116896" vehicle="116896" capacity="15000.0" />
  <battery id="battery_144970" vehicle="144970" capacity="15000.0" />
  <battery id="battery_238827" vehicle="238827" capacity="15000.0" />
  <battery id="battery_53753" vehicle="53753" capacity="15000.0" />
  <battery id="battery_129637" vehicle="129637" capacity="15000.0" />
  <battery id="battery_232197" vehicle="232197" capacity="15000.0" />
  <battery id="battery_43339" vehicle="43339" capacity="15000.0" />
  <battery id="battery_128658" vehicle="128658" capacity="15000.0" />
  <battery id="battery_242828" vehicle="242828" capacity="15000.0" />
  <battery id="battery_212293" vehicle="212293" capacity="15000.0" />
  <battery id="battery_184445" vehicle="184445" capacity="15000.0" />
  <battery id="battery_10805" vehicle="10805" capacity="15000.0" />
  <battery id="battery_183279" vehicle="183279" capacity="15000.0" />
  <battery id="battery_17102" vehicle="17102" capacity="15000.0" />
  <battery id="battery_219651" vehicle="219651" capacity="15000.0" />
  <battery id="battery_236147" vehicle="236147" capacity="15000.0" />
  <battery id="battery_23607" vehicle="23607" capacity="15000.0" />
  <battery id="battery_133879" vehicle="133879" capacity="15000.0" />
  <battery id="battery_274333" vehicle="274333" capacity="15000.0" />
  <battery id="battery_143886" vehicle="143886" capacity="15000.0" />
  <battery id="battery_127418" vehicle="127418" capacity="15000.0" />
  <battery id="battery_32116" vehicle="32116" capacity="15000.0" />
  <battery id="battery_85019" vehicle="85019" capacity="15000.0" />
  <battery id="battery_198381" vehicle="198381" capacity="15000.0" />
  <battery id="battery_15178" vehicle="15178" capacity="15000.0" />
  <battery id="battery_238516" vehicle="238516" capacity="15000.0" />
  <battery id="battery_279652" vehicle="279652" capacity="15000.0" />
  <battery id="battery_307615" vehicle="307615" capacity="15000.0" />
  <battery id="battery_113683" vehicle="113683" capacity="15000.0" />
  <battery id="battery_247517" vehicle="247517" capacity="15000.0" />
  <battery id="battery_25621" vehicle="25621" capacity="15000.0" />
  <battery id="battery_135611" vehicle="135611" capacity="15000.0" />
  <battery id="battery_16008" vehicle="16008" capacity="15000.0" />
  <battery id="battery_123566" vehicle="123566" capacity="15000.0" />
  <battery id="battery_42383" vehicle="42383" capacity="15000.0" />
  <battery id="battery_107139" vehicle="107139" capacity="15000.0" />
  <battery id="battery_24771" vehicle="24771" capacity="15000.0" />
  <battery id="battery_138557" vehicle="138557" capacity="15000.0" />
  <battery id="battery_65274" vehicle="65274" capacity="15000.0" />
  <battery id="battery_204902" vehicle="204902" capacity="15000.0" />
  <battery id="battery_243806" vehicle="243806" capacity="15000.0" />
  <battery id="battery_228270" vehicle="228270" capacity="15000.0" />
  <battery id="battery_271497" vehicle="271497" capacity="15000.0" />
  <battery id="battery_218270" vehicle="218270" capacity="15000.0" />
  <battery id="battery_238307" vehicle="238307" capacity="15000.0" />
  <battery id="battery_317023" vehicle="317023" capacity="15000.0" />
  <battery id="battery_274518" vehicle="274518" capacity="15000.0" />
  <battery id="battery_307504" vehicle="307504" capacity="15000.0" />
  <battery id="battery_318350" vehicle="318350" capacity="15000.0" />
  <battery id="battery_71353" vehicle="71353" capacity="15000.0" />
  <battery id="battery_123590" vehicle="123590" capacity="15000.0" />
  <battery id="battery_184003" vehicle="184003" capacity="15000.0" />
  <battery id="battery_182976" vehicle="182976" capacity="15000.0" />
  <battery id="battery_87271" vehicle="87271" capacity="15000.0" />
  <battery id="battery_117022" vehicle="117022" capacity="15000.0" />
  <battery id="battery_315894" vehicle="315894" capacity="15000.0" />
  <battery id="battery_19754" vehicle="19754" capacity="15000.0" />
  <battery id="battery_151598" vehicle="151598" capacity="15000.0" />
  <battery id="battery_519" vehicle="519" capacity="15000.0" />
  <battery id="battery_49040" vehicle="49040" capacity="15000.0" />
  <battery id="battery_67063" vehicle="67063" capacity="15000.0" />
  <battery id="battery_22989" vehicle="22989" capacity="15000.0" />
  <battery id="battery_263295" vehicle="263295" capacity="15000.0" />
  <battery id="battery_168689" vehicle="168689" capacity="15000.0" />
  <battery id="battery_276914" vehicle="276914" capacity="15000.0" />
  <battery id="battery_161256" vehicle="161256" capacity="15000.0" />
  <battery id="battery_173594" vehicle="173594" capacity="15000.0" />
  <battery id="battery_230084" vehicle="230084" capacity="15000.0" />
  <battery id="battery_42501" vehicle="42501" capacity="15000.0" />
  <battery id="battery_189413" vehicle="189413" capacity="15000.0" />
  <battery id="battery_80661" vehicle="80661" capacity="15000.0" />
  <battery id="battery_126058" vehicle="126058" capacity="15000.0" />
  <battery id="battery_216728" vehicle="216728" capacity="15000.0" />
  <battery id="battery_17707" vehicle="17707" capacity="15000.0" />
  <battery id="battery_195123" vehicle="195123" capacity="15000.0" />
  <battery id="battery_233578" vehicle="233578" capacity="15000.0" />
  <battery id="battery_9050" vehicle="9050" capacity="15000.0" />
  <battery id="battery_258005" vehicle="258005" capacity="15000.0" />
  <battery id="battery_34581" vehicle="34581" capacity="15000.0" />
  <battery id="battery_286267" vehicle="286267" capacity="15000.0" />