<?xml version='1.0' encoding='UTF-8'?>
<!-- generated on 2025-04-09 16:41:21 by Eclipse SUMO duarouter Version 1.22.0
<duarouterConfiguration xmlns:xsi="http://www.w3.org/2001/XMLSchema-instance" xsi:noNamespaceSchemaLocation="http://sumo.dlr.de/xsd/duarouterConfiguration.xsd">

    <input>
        <net-file value="2345net.net.xml"/>
        <route-files value="od.trips.xml"/>
    </input>

    <output>
        <output-file value="routes.rou.xml"/>
    </output>

</duarouterConfiguration>
-->
<routes xmlns:xsi="http://www.w3.org/2001/XMLSchema-instance" xsi:noNamespaceSchemaLocation="http://sumo.dlr.de/xsd/routes_file.xsd">
    <vType id="electricCar" vClass="passenger" accel="2.6" decel="4.5" sigma="0.5" length="4.5" minGap="2.5" maxSpeed="25" guiShape="passenger"><param key="has.battery.device" value="true"/><param key="device.battery.capacity" value="2000.0"/><param key="device.battery.efficiency" value="0.9"/><param key="device.battery.request" value="1.0"/><param key="device.battery.simulation" value="1"/></vType><vehicle id="108532" depart="36000.00" departLane="free" departSpeed="max" fromTaz="21" toTaz="16" type="electricCar">
        <route edges="--483#1 --2863#3 -477#2 -477#3 -477#4 -2950 --2941 -2942#0 -2942#1 -2942#2 -473#0 -473#1 -487#0 -487#1 -487#2 -487#3 --179#9 --179#8 --179#7 --179#6 --179#5 --179#4 --179#3 -1901#2 -1901#3 -1901#4 -1901#5 --2685#1 --2685#0 --175#2"/>
    </vehicle>
    <vehicle id="77083" depart="36000.00" departLane="free" departSpeed="max" fromTaz="18" toTaz="7" type="electricCar">
        <route edges="--1322#0 --2570#3 --2570#2 -2484#1 -748#1 -3212 -750 -3214 -740#0 -740#1 -740#2 -2561 -718#0 -718#1 -3217 -267#0 -267#1 -267#2 -267#3 -267#4 -267#5 -265 -720 -719#4 -727 -182#3 -728#0 -728#1 -728#2 -762#1 -2478 --2807#1 --2807#0 --91#2 --91#1 --91#0 --2716#4 --2716#3 --2716#2 --2716#1 --2716#0 --2716#8 --2018 --90#3 --89#1 --2709#0 --88#0 --88#4 --75 --14#5 --14#4 --14#3 --14#2 -15 -2972 --2974 --17#4 --17#3 --17#2 --17#1 --17#0 --18#3 --18#2 --18#1 --1395#6 --1395#5 --1395#4 --1395#3 --1395#2 --1395#1 --1395#0 --3152 --1394 --3155 --1392 --277#4 --277#3 --277#2 --277#1 --355#2 --355#1 --355#0 --1504#13 --1360#4 --1360#3 --1360#2 --1360#1 --1360#0 --2093#1 --1504#7 --1504#6 --1504#5 --1504#4 --1504#3 --1504#2 --1504#1 --1504#0 --559#9 --559#8 --559#7 --559#6 --559#5 --559#4 --559#3 --559#2 -1285#1 --1286#0 -1285#4 --1285#4"/>
    </vehicle>
    <vehicle id="180277" depart="36000.00" departLane="free" departSpeed="max" fromTaz="25" toTaz="18" type="electricCar">
        <route edges="--822 --2764 --2716#0 --2716#8 --2716#7 --2716#6 --2716#5 -91#0 -91#1 -91#2 -2807#0 -2807#1 --2478 --762#1 --728#2 --728#1 --728#0 --182#3 --727 --719#4 --720 --265 --267#5 --267#4 --267#3 --267#2 --267#1 --267#0 --3217 --718#1 --718#0 --2561 --740#2 --740#1 --740#0 --3214 --750 --3212 --748#1 --748#0 --186 --187#4 --187#3 --187#2 --187#1 --187#0 -3208 --1319#4 -446#1 --1322#0"/>
    </vehicle>
    <vehicle id="107409" depart="36000.00" departLane="free" departSpeed="max" fromTaz="21" toTaz="12" type="electricCar">
        <route edges="--483#1 --2863#3 -477#2 -477#3 -477#4 -2950 --2941 -2942#0 -2942#1 -2942#2 -473#0 -473#1 -487#0 -487#1 -487#2 -180#0 -180#1 -180#2 -180#3 -180#4 -180#5 -180#6 -180#7 -505#0 -505#1 -505#2 -505#3 -505#4 -505#5 -505#6 -697#2 -697#3 -678 -679 -680#0 -680#1 --2602#0 --2601 --2600#2 --82 --945#4 --945#3 --945#2 --3028 --3025#1 --3025#0"/>
    </vehicle>
    <vehicle id="215404" depart="36000.00" departLane="free" departSpeed="max" fromTaz="27" toTaz="24" type="electricCar">
        <route edges="--2447 --692 --3174 --1048 --301 --300 --3182 --2605#2 --2605#1 --2605#0 -227#0 -227#1 -226 -81#0 -81#1 -81#2 -81#3 -81#4 -81#5 -80 -79#0 -79#1 -79#2 --78#1 -92 --2440 --2056#1 --2057 -2438 --1300#3 --1300#2 --1300#1 -1299 --1304 --1303#3 --2436 --2437#0 --2435 -413 -250 --249#0 -276#1 --2975#1 --2975#0 --2716#5 --2716#4 --2716#3 --2716#2 --2716#1 -2764 -822 -2760 --2761 --2968 --23 --326 --816 --817#1 --21#1 --21#0 --19#8 --19#7 --19#6 --19#5 --19#4 --19#3 --19#2 -20#0 -20#1 -20#2 -20#3 -20#4 -20#5 -20#6 -20#7 -20#8 -20#9 -20#10 -20#11 -20#12 -20#13 -20#14 -20#15 -3016#3 --3017 --329#1 --329#0 --329#7 --329#6 -340#0 -340#1 -340#2 --340#2"/>
    </vehicle>
    <vehicle id="183643" depart="36000.00" departLane="free" departSpeed="max" fromTaz="25" toTaz="23" type="electricCar">
        <route edges="--822 --2764 --2716#0 --2716#8 --2018 --90#3 --90#2 --2706#1 --2706#0 --69#4 --69#3 --69#2 --2710 -714#2 -714#3 -715#0 -715#1 -715#2 -715#3 -715#4 -715#5 -715#6 -171#0 -171#1 -171#2 -2993#1 -2993#2 -2993#3 -2995 -169#0 -169#1 -169#2 -1232#0 -1232#1 -2512#0 --1231#0 --1229#2 --1230 --673#3 --673#2 --673#1 --1430#1 --1433#4 --1433#3 --1433#2 --1433#1 --1433#0 --655#0"/>
    </vehicle>
    <vehicle id="208838" depart="36000.00" departLane="free" departSpeed="max" fromTaz="26" toTaz="29" type="electricCar">
        <route edges="-1054#2 -1663 --779#2 --1660#0 --3065#2 --3065#1 --3065#0 --3065#8 --3065#7 --3065#6 --768 --767 --766#1 --766#0 --708 --707#1 --707#0 --1227#2 --1205#0"/>
    </vehicle>
    <vehicle id="66064" depart="36000.00" departLane="free" departSpeed="max" fromTaz="18" toTaz="21" type="electricCar">
        <route edges="--1322#0 --2570#3 --2570#2 -2484#1 -748#1 -3212 -750 -3214 -740#0 -740#1 -740#2 -2561 -718#0 -718#1 -3217 -267#0 -267#1 -267#2 -267#3 -267#4 -267#5 -265 -720 -719#4 -727 -182#3 -728#0 -728#1 -728#2 -762#1 -2478 --2807#1 --2807#0 --91#2 --91#1 --91#0 --2716#4 --2716#3 --2716#2 --2716#1 --2716#0 --2716#8 --2018 --90#3 --90#2 --2706#1 --2706#0 --69#4 --69#3 --69#2 --2710 -714#2 -714#3 -715#0 -715#1 -715#2 -715#3 -715#4 -715#5 -715#6 -171#0 -171#1 -171#2 -2993#1 -2993#2 --505#1 --505#0 --180#7 --180#6 --180#5 --180#4 --180#3 --180#2 --180#1 --180#0 --487#2 --487#1 --487#0 --473#1 --473#0 --2942#2 --2942#1 --2942#0 --2947 --483#3 --483#2 --483#1"/>
    </vehicle>
    <vehicle id="253615" depart="36000.00" departLane="free" departSpeed="max" fromTaz="29" toTaz="25" type="electricCar">
        <route edges="--1205#0 --1927#4 --1927#3 --1927#2 --1927#1 --1927#0 --1162 --1812#1 --1812#0 --1180#4 --1180#3 --1180#2 --1171#2 --217#0 --1174#2 --2000 --1176#2 --1177 --1184#3 --1184#2 --1190 --2959 --1189#2 --731#1 --731#0 --730#1 --1523 --1341 --761#1 --761#0 -762#0 -762#1 -2478 --2807#1 --2807#0 --91#2 --91#1 --91#0 --2716#4 --2716#3 --2716#2 --2716#1 -2764 -822 -2760 --2760 --822"/>
    </vehicle>
    <vehicle id="201402" depart="36000.00" departLane="free" departSpeed="max" fromTaz="26" toTaz="24" type="electricCar">
        <route edges="-1054#2 -1054#3 --1049#1 --1050#3 --1050#2 --1050#1 -948#1 -950#5 -950#6 -950#7 -953 -1208#3 -1653 -314 -957#0 -957#1 -957#2 -957#3 -85 -961 -2754 -84 --1300#2 --1300#1 -1299 --1304 --1303#3 --2436 --2437#0 --2435 -413 -250 --249#0 -276#1 --2975#1 --2975#0 --2716#5 --2716#4 --2716#3 --2716#2 --2716#1 -2764 -822 -2760 --2761 --2968 --23 --326 --816 --817#1 --21#1 --21#0 --19#8 --19#7 --19#6 --19#5 --19#4 --19#3 --19#2 -20#0 -20#1 -20#2 -20#3 -20#4 -20#5 -20#6 -20#7 -20#8 -20#9 -20#10 -20#11 -20#12 -20#13 -20#14 -20#15 -3016#3 --3017 --329#1 --329#0 --329#7 --329#6 -340#0 -340#1 -340#2 --340#2"/>
    </vehicle>
    <vehicle id="118574" depart="36000.00" departLane="free" departSpeed="max" fromTaz="21" toTaz="25" type="electricCar">
        <route edges="--483#1 --2863#3 -477#2 -366#1 -366#2 --1361#3 --1361#2 --1361#1 --1361#0 --135#6 --135#5 --135#4 --1775 --277#7 --277#6 --277#5 -1392 -3155 -1394 -3152 -1395#0 -1389#0 -1389#1 -827 -2795#0 -2795#1 -826#3 -826#4 --2794 --25 --2282#1 --2282#0 --925#5 --818#2 --818#1 --818#0 --817#3 --817#2 -816 -326 -23 -2968 -2761 --2760 --822"/>
    </vehicle>
    <vehicle id="41734" depart="36000.00" departLane="free" departSpeed="max" fromTaz="14" toTaz="23" type="electricCar">
        <route edges="--1858 --1859#2 --1833 --3169#0 --3166#1 --3166#0 --631#3 --630#5 --630#4 --630#3 --630#2 --630#1 --630#0 --627 --1428#2 --1428#1 --1428#0 --1432#1 --626#5 --626#4 --626#3 --626#2 --626#1 --626#0 --625#4 --655#1 --655#0"/>
    </vehicle>
    <vehicle id="211440" depart="36000.00" departLane="free" departSpeed="max" fromTaz="27" toTaz="15" type="electricCar">
        <route edges="--2447 --692 --3174 --1048 --301 --300 --3182 --2605#2 --2605#1 --2605#0 -227#0 -227#1 -226 -81#0 -81#1 -81#2 -81#3 -958#3 -958#4 -313 -316#0 -316#1 -697#5 -145 --698#1 --698#0 --698#6 --700 --146#1 --146#0 -148#0 -148#1 -151 -2689 -476#1 -472 -474#0 -474#1 -1232#1 -1232#2 -1229#4 -1233 -1234"/>
    </vehicle>
    <vehicle id="217312" depart="36000.00" departLane="free" departSpeed="max" fromTaz="27" toTaz="26" type="electricCar">
        <route edges="--2447 --692 --3174 --1048 --301 --300 --3182 --2605#2 --284#0 -1545 -1546 -1547 -947 --946#1 --946#0 --950#5 --950#4 --950#3 --952 --1061#4 --1660#2 -1054#2"/>
    </vehicle>
    <vehicle id="315769" depart="36000.00" departLane="free" departSpeed="max" fromTaz="8" toTaz="28" type="electricCar">
        <route edges="--1775 --277#7 --277#6 --517 --3154 --516#1 --516#0 --3153 --1393#6 --1393#5 --1393#4 --1393#3 --1393#2 --1393#1 --1393#0 --18#5 --2725#4 --2725#3 --2725#2 --2725#1 --2725#0 -2974 --2972 --15 --14#1 --14#0 --14#8 --14#7 --76 --2726 --88#2 --88#1 -2709#0 -89#1 -90#3 -2018 --2716#7 --2716#6 --2716#5 --2716#4 --2017 --2016#0 --2016#4 --2016#3 -2015 --110#0 -87 --687#7 --687#6 --687#5 --687#4 --687#3 --687#2 --687#1 --687#0 --684#0 --688 --682#6 --682#5 --682#4 --682#3 -1583#0 -541#1 --539#6 --539#5 --2126"/>
    </vehicle>
    <vehicle id="76747" depart="36000.00" departLane="free" departSpeed="max" fromTaz="18" toTaz="5" type="electricCar">
        <route edges="--1322#0 --2570#3 --2570#2 --2570#1 --2570#0 --1135#1 --1135#0 --2752 --2839 --2840 --2750#1 --2750#0 --1561 -1139#4 -1139#5 -1146 -1140#3 -224 --2820 --223 --222#1 --1109#1 --1109#0 --1959#1 -1154#0 -1154#1 --1956#1 --1956#0 -1958#0 -1958#1 -1958#2 --1203#1 --1203#0 --1201 --388#0 --387#3 --1198#1 -295#6 -295#7 -1830#5 -1830#6 -1830#7 -2167#0 -2167#1 -2167#2 -231 -3187 -958#0 -958#1 -958#2 --81#3 -228 -229 -230#0 --1492#5 --1492#4 --1492#3 --1492#2 --1492#1 --390#0"/>
    </vehicle>
    <vehicle id="242887" depart="36000.00" departLane="free" departSpeed="max" fromTaz="28" toTaz="3" type="electricCar">
        <route edges="--2126 --2138#6 --2135#1 --1609#0 --1583#3 --1583#2 --1583#1 --1583#0 -682#3 -682#4 -682#5 -682#6 -688 -684#0 -687#0 -687#1 -687#2 -687#3 -687#4 -687#5 -687#6 -687#7 --87 -110#0 --2015 --2016#2 --2715 --2716#2 --2716#1 --2716#0 --2716#8 --2018 --90#3 --90#2 --2706#1 --2706#0 --69#4 --69#3 --69#2 --2710 -714#2 -714#3 -715#0 -715#1 -715#2 -715#3 -715#4 -715#5 -715#6 -715#7 -715#8 -715#9 --505#3 --713#1 --713#0 --476#4 --478 -380#0 -380#1 -380#2 -2172 -2109 -2110 -2314 -2315 -2178 -2179#0 -2179#1 -2179#2 -2179#3 --629#1 --629#0 --631#7 --3167#1 --3167#0 --3168#3 -235 -1247 -1248#0 --1246#0 --410#3"/>
    </vehicle>
    <vehicle id="272248" depart="36000.00" departLane="free" departSpeed="max" fromTaz="3" toTaz="29" type="electricCar">
        <route edges="--410#3 --410#2 --410#1 --410#0 --1919#3 --1919#2 --1919#1 -1380#1 -3172 -1382 -3245 -3170 -1383#0 -1383#1 -1383#2 -1383#3 -1383#4 -770 -3181 -520 -3178 -769 -3064#0 -3064#1 -3064#2 -3064#3 -3064#4 -3064#5 --3065#1 --3065#0 --3065#8 --3065#7 --3065#6 --768 --767 --766#1 --766#0 --708 --707#1 --707#0 --1227#2 --1205#0"/>
    </vehicle>
    <vehicle id="47548" depart="36000.00" departLane="free" departSpeed="max" fromTaz="15" toTaz="18" type="electricCar">
        <route edges="-1234 --1229#5 --1229#4 --1232#2 --1232#1 --474#1 --474#0 --472 --476#1 --2689 --151 --148#1 --701 --2593 --698#4 --698#3 --698#2 --145 --697#5 --316#1 --316#0 --313 --958#4 --958#3 --958#2 --958#1 --958#0 --3187 --231 --2167#2 --2167#1 --2167#0 --1830#7 --1830#6 --1830#5 --295#7 --295#6 -1198#1 -387#3 -388#0 -1201 -1203#0 -1203#1 --1958#2 --1958#1 --1958#0 --1957#1 --1957#0 --1154#1 --1154#0 --1959#0 --1959#3 --1108#6 --1108#5 --1108#4 -1111#0 -1111#1 --1112 --1118#1 --1118#0 --1117#0 --1117#4 --1117#3 --1119 --1116 --1123 --1122#7 --1122#6 --1122#5 --1121#1 --1319#5 --1319#4 -446#1 --1322#0"/>
    </vehicle>
    <vehicle id="295590" depart="36000.00" departLane="free" departSpeed="max" fromTaz="4" toTaz="24" type="electricCar">
        <route edges="-1922#4 -2806 --1919#4 --1919#3 --1919#2 -1381#1 --1922#1 --1922#0 --1921 --1920#2 --1920#1 -647#1 --646 -644#0 -644#1 -644#2 -644#3 --643 --622#0 --3169#4 --3169#3 --3169#2 --1857 --1859#0 --1859#4 --1838 --1834#0 --1834#6 --1834#5 --1834#4 --1837 --1836 --1835 --157 --155#5 --155#4 --155#3 --2652 --1518#2 --153#1 --153#0 --148#0 --2691#5 --2691#4 --2691#3 --2691#2 --2691#1 --2691#0 --63#5 --63#4 --63#3 --715#1 --715#0 --714#3 --714#2 --714#1 --72 --71#5 --73 --14#7 --14#6 --14#5 --922 --10#6 --10#5 --10#4 --12 --13 --8#2 --818#0 -817#4 -820#0 -820#1 -19#10 -19#0 -19#1 -20#0 -20#1 -20#2 -20#3 -20#4 -20#5 -20#6 -20#7 -20#8 -20#9 -20#10 -20#11 -20#12 -20#13 -20#14 -20#15 -3016#3 --3017 --329#1 --329#0 --329#7 --329#6 -340#0 -340#1 -340#2 --340#2"/>
    </vehicle>
    <vehicle id="148281" depart="36000.00" departLane="free" departSpeed="max" fromTaz="24" toTaz="18" type="electricCar">
        <route edges="--340#2 --340#1 --340#0 --329#5 --329#4 --329#3 --329#2 -3017 --3016#3 --20#15 --20#14 --20#13 --20#12 --20#11 --20#10 --20#9 --20#8 --20#7 --20#6 --20#5 --20#4 --20#3 --20#2 --20#1 --20#0 --19#1 --19#0 --19#10 --820#1 --820#0 --817#4 --817#3 --817#2 -816 -326 -23 -2968 -2761 --2760 --822 --2764 --2716#0 --2716#8 --2716#7 --2716#6 --2716#5 -91#0 -91#1 -91#2 -2807#0 -2807#1 --2478 --762#1 --728#2 --728#1 --728#0 --182#3 --727 --719#4 --720 --265 --267#5 --267#4 --267#3 --267#2 --267#1 --267#0 --3217 --718#1 --718#0 --2561 --740#2 --740#1 --740#0 --3214 --750 --3212 --748#1 --748#0 --186 --187#4 --187#3 --187#2 --187#1 --187#0 -3208 --1319#4 -446#1 --1322#0"/>
    </vehicle>
    <vehicle id="320294" depart="36000.00" departLane="free" departSpeed="max" fromTaz="9" toTaz="24" type="electricCar">
        <route edges="--61#0 -61#0 --2725#3 --2725#2 --2725#1 --2725#0 -2974 --2972 --15 -14#2 -14#3 -923 -10#1 -10#2 -918 -919 -920#0 --818#1 --818#0 -817#4 -820#0 -820#1 -19#10 -19#0 -19#1 -20#0 -20#1 -20#2 -20#3 -20#4 -20#5 -20#6 -20#7 -20#8 -20#9 -20#10 -20#11 -20#12 -20#13 -20#14 -20#15 -3016#3 --3017 --329#1 --329#0 --329#7 --329#6 -340#0 -340#1 -340#2 --340#2"/>
    </vehicle>
    <vehicle id="53973" depart="36000.00" departLane="free" departSpeed="max" fromTaz="16" toTaz="24" type="electricCar">
        <route edges="--175#2 --175#1 --175#0 --1471 --1466#4 --1466#3 --173 -1490 --1395#3 --1395#2 --828#1 --828#0 --2793 --2796#1 --2796#0 --1515#2 --1515#1 --1515#0 --824#3 --823 --840#6 --840#5 --840#4 --830 --838#3 --832 --834#3 --837 --835#4 --835#3 --3081 --3082#0 --3082#4 --3109 --3110#0 --3110#8 --3110#7 -3112 --340#2"/>
    </vehicle>
    <vehicle id="32517" depart="36000.00" departLane="free" departSpeed="max" fromTaz="12" toTaz="4" type="electricCar">
        <route edges="--3025#0 -3025#0 -3025#1 -3028 -945#2 -945#3 -945#4 -945#5 -945#6 --79#1 --79#0 --80 --81#5 --81#4 -958#3 -958#4 -313 -316#0 -316#1 -697#5 -145 -698#2 -147#0 -147#1 -147#2 --164#1 --164#0 --165 --166#2 --238#3 --238#2 --238#1 --238#0 --1839#4 --1839#3 --1839#2 --1840 --1841#4 --1841#3 --1841#2 --237 --1842#2 --394#1 --394#0 --644#1 --644#0 --645 --647#1 -1920#1 -1920#2 -1921 -1922#0 -1922#1 -1922#2 -1922#3 -1922#4"/>
    </vehicle>
    <vehicle id="41595" depart="36000.00" departLane="free" departSpeed="max" fromTaz="14" toTaz="22" type="electricCar">
        <route edges="--1858 --1859#2 --1859#1 --1859#0 --1859#4 --1838 --1834#0 --1834#6 --1834#5 --1834#4 --1837 --1836 --1835 --157 --155#5 --155#4 --155#3 --2652 --1518#2 --153#1 --153#0 --148#0 --2691#5 --2691#4 -506#1 -506#2 --715#10 --715#9 --715#8 --715#7 --715#6 --1469#4 --1469#3 --1469#2 --1469#1 --1469#0 --1470#2 --1470#1 --1470#0 --2686 --175#0 --1471 --1466#4 --1466#3 --1466#2 --1466#1 --1466#0 --3255#3 --3255#2 --3255#1 --513#5 --513#4 --513#3 --513#2 --513#1 --1796 --277#3 --277#2 -2745#0 -356#1 -356#2 -356#3"/>
    </vehicle>
    <vehicle id="78050" depart="36000.00" departLane="free" departSpeed="max" fromTaz="19" toTaz="10" type="electricCar">
        <route edges="-2352#0 -2352#1 -2352#2 -2352#3 -559#1 -559#2 -559#3 -559#4 -559#5 -2368 -2411 -2412 -2366 --2410 -2409 --2407 --135#19 --135#18 --135#17 --135#16 --135#15 --135#14 --135#13 --135#12 --135#11 --135#10 --135#9 --135#8 --135#7 --135#6 --135#5 --135#4 --1775 --277#7 --277#6 --517 --3154 --516#1 --516#0 --3153 --1393#6 --1393#5 --1393#4 --1393#3 --1393#2 --1393#1 --1393#0 --18#5 --2725#4 --2725#3 --2725#2 --2725#1 --2725#0 -2974 --2972 --15 --14#1 --14#0 --14#8 --14#7 --76 --2726 --88#2 --88#1 -2709#0 -89#1 -90#3 -2018 --2716#7 --2716#6 --2716#5 -91#0 -91#1 -91#2 -2807#0 -2807#1 --2478 --762#1 --728#2 --728#1 --728#0 --182#3 --727 --719#4 --719#3 -721#0 -721#1 -721#2 -2983 -722 -737#0 -737#1 --2578 --2580 -2581#0 -2581#1 -212#5 -2723 -941#1 -942 -3225 --126"/>
    </vehicle>
    <vehicle id="211269" depart="36000.00" departLane="free" departSpeed="max" fromTaz="27" toTaz="14" type="electricCar">
        <route edges="--2447 --692 --3174 --1048 --301 --300 --3182 --2605#2 --2605#1 --2605#0 -227#0 -227#1 -226 -81#0 -81#1 -81#2 -81#3 -958#3 -958#4 -313 -316#0 -316#1 -697#5 -145 --698#1 --698#0 --698#6 --698#5 --698#4 --2595#2 --2595#1 --2595#0 --2597#1 --2606 --155#3 --155#2 --155#1 --156#1 --156#0 --162 --163#1 --163#0 --1834#2 --1858"/>
    </vehicle>
    <vehicle id="67772" depart="36000.00" departLane="free" departSpeed="max" fromTaz="18" toTaz="22" type="electricCar">
        <route edges="--1322#0 --2570#3 --2570#2 -2484#1 -748#1 -3212 -750 -3214 -740#0 -740#1 -740#2 -2561 -718#0 -718#1 -3217 -267#0 -267#1 -267#2 -267#3 -267#4 -267#5 -265 -720 -719#4 -727 -182#3 -728#0 -728#1 -728#2 -762#1 -2478 --2807#1 --2807#0 --91#2 --91#1 --91#0 --2716#4 --2716#3 --2716#2 --2716#1 --2716#0 --2716#8 --2018 --90#3 --89#1 --2709#0 --88#0 --88#4 --75 --14#5 --14#4 --14#3 --14#2 -15 -2972 --2974 --17#4 --17#3 --17#2 --17#1 --17#0 --18#3 --18#2 --18#1 --1395#6 --1395#5 --1395#4 --1395#3 --1395#2 --1395#1 --1395#0 --3152 --1394 --3155 --1392 --277#4 --277#3 --277#2 -2745#0 -356#1 -356#2 -356#3"/>
    </vehicle>
    <vehicle id="46641" depart="36000.00" departLane="free" departSpeed="max" fromTaz="15" toTaz="14" type="electricCar">
        <route edges="-1234 --1229#5 --1229#4 --1232#2 --1232#1 --474#1 --474#0 --472 --476#1 --2689 --151 --154 --2693#1 --2693#0 --1518#0 --1518#4 --2692 --158 --155#1 --156#1 --156#0 --162 --163#1 --163#0 --1834#2 --1858"/>
    </vehicle>
    <vehicle id="201507" depart="36000.00" departLane="free" departSpeed="max" fromTaz="26" toTaz="24" type="electricCar">
        <route edges="-1054#2 -1054#3 --1049#1 --1050#3 --1050#2 --1050#1 -948#1 -950#5 -950#6 -950#7 -953 -1208#3 -1653 -314 -957#0 -957#1 -957#2 -957#3 -85 -961 -2754 -84 --1300#2 --1300#1 -1299 --1304 --1303#3 --2436 --2437#0 --2435 -413 -250 --249#0 -276#1 --2975#1 --2975#0 --2716#5 --2716#4 --2716#3 --2716#2 --2716#1 -2764 -822 -2760 --2761 --2968 --23 --326 --816 --817#1 --21#1 --21#0 --19#8 --19#7 --19#6 --19#5 --19#4 --19#3 --19#2 -20#0 -20#1 -20#2 -20#3 -20#4 -20#5 -20#6 -20#7 -20#8 -20#9 -20#10 -20#11 -20#12 -20#13 -20#14 -20#15 -3016#3 --3017 --329#1 --329#0 --329#7 --329#6 -340#0 -340#1 -340#2 --340#2"/>
    </vehicle>
    <vehicle id="198314" depart="36000.00" departLane="free" departSpeed="max" fromTaz="26" toTaz="19" type="electricCar">
        <route edges="-1054#2 -1054#3 --1049#1 --1049#0 --1049#6 --1049#5 --1052#1 --3064#2 --3064#1 --3064#0 --769 --3178 --520 --3181 --770 --1383#4 --1383#3 --1383#2 --1383#1 --1383#0 --3170 --3245 --1382 --3172 --1380#1 --1380#0 --1922#0 --1921 --1920#2 --1920#1 -647#1 --646 -644#0 -644#1 -644#2 -644#3 --643 --622#0 --3169#4 --3169#3 --3169#2 --3169#1 --3169#0 --3166#1 --3166#0 --631#3 --630#5 --630#4 --630#3 --630#2 --630#1 --630#0 --627 --1428#2 --1428#1 --1428#0 --1432#1 --626#5 --626#4 --626#3 --626#2 --626#1 --626#0 --625#4 --625#3 --625#2 --625#1 --625#0 -623#0 -623#1 -623#2 -623#3 -623#4 -623#5 --507#5 --507#4 --507#3 --1934#3 --1934#2 --1934#1 --1934#0 --1936#3 --1936#2 --1936#1 --369#15 --369#14 --369#13 --369#12 --369#11 --369#10 --369#9 --369#8 --369#7 --369#6 --369#5 --369#4 --369#3 --369#2 --369#1 --369#0 --557#2 --557#1 --557#0 --559#4 --559#3 --559#2 --559#1 --559#0 --2322 --2321 --2320#2 --2320#1 --2320#0 --2336#4 -280 -2351 -2352#0"/>
    </vehicle>
    <vehicle id="89375" depart="36000.00" departLane="free" departSpeed="max" fromTaz="19" toTaz="9" type="electricCar">
        <route edges="-2352#0 -2352#1 -2352#2 -2352#3 -559#1 -559#2 -559#3 -559#4 -559#5 -2368 -2411 -2412 -2366 --2410 -2409 --2407 --135#19 --135#18 --135#17 --135#16 --135#15 --135#14 --135#13 --135#12 --135#11 --135#10 --135#9 --135#8 --135#7 --135#6 --135#5 --135#4 --1775 --277#7 --277#6 --517 --3154 --516#1 --516#0 --3153 --1393#6 --1393#5 --1393#4 --1393#3 --1393#2 --1393#1 --1393#0 --18#5 --2725#4 --61#0"/>
    </vehicle>
    <vehicle id="319699" depart="36000.00" departLane="free" departSpeed="max" fromTaz="9" toTaz="19" type="electricCar">
        <route edges="--61#0 -61#0 -61#1 --17#0 --18#3 --18#2 --18#1 --1395#6 --1395#5 --1395#4 --1395#3 --1395#2 --1395#1 --1395#0 --3152 --1394 --3155 --1392 --277#4 --277#3 --277#2 --277#1 --355#2 --355#1 --355#0 --1504#13 --1360#4 --1360#3 --1360#2 --1360#1 --1360#0 --2093#1 --1504#7 --1504#6 --1504#5 --1504#4 --1504#3 --1504#2 --1504#1 --1504#0 --559#9 --559#8 --559#7 --559#6 --559#5 --559#4 --559#3 --559#2 --559#1 --559#0 --2322 --2321 --2320#2 --2320#1 --2320#0 --2336#4 -280 -2351 -2352#0"/>
    </vehicle>
    <vehicle id="62098" depart="36000.00" departLane="free" departSpeed="max" fromTaz="18" toTaz="19" type="electricCar">
        <route edges="--1322#0 --2570#3 --2570#2 -2484#1 -748#1 -3212 -750 -3214 -740#0 -740#1 -740#2 -2561 -718#0 -718#1 -3217 -267#0 -267#1 -267#2 -267#3 -267#4 -267#5 -265 -720 -719#4 -727 -182#3 -728#0 -728#1 -728#2 -762#1 -2478 --2807#1 --2807#0 --91#2 --91#1 --91#0 --2716#4 --2716#3 --2716#2 --2716#1 --2716#0 --2716#8 --2018 --90#3 --89#1 --2709#0 --88#0 --88#4 --75 --14#5 --14#4 --14#3 --14#2 -15 -2972 --2974 --17#4 --17#3 --17#2 --17#1 --17#0 --18#3 --18#2 --18#1 --1395#6 --1395#5 --1395#4 --1395#3 --1395#2 --1395#1 --1395#0 --3152 --1394 --3155 --1392 --277#4 --277#3 --277#2 --277#1 --355#2 --355#1 --355#0 --1504#13 --1360#4 --1360#3 --1360#2 --1360#1 --1360#0 --2093#1 --1504#7 --1504#6 --1504#5 --1504#4 --1504#3 --1504#2 --1504#1 --1504#0 --559#9 --559#8 --559#7 --559#6 --559#5 --559#4 --559#3 --559#2 --559#1 --559#0 --2322 --2321 --2320#2 --2320#1 --2320#0 --2336#4 -280 -2351 -2352#0"/>
    </vehicle>
    <vehicle id="191377" depart="36000.00" departLane="free" departSpeed="max" fromTaz="25" toTaz="27" type="electricCar">
        <route edges="--822 --2764 --2716#0 --2716#8 --2716#7 --2716#6 -2975#0 -2975#1 --276#1 -249#0 --250 --413 --2434 --2433#0 --1302 --1303#1 --3296 --1299 --1300#0 --1300#4 --2438 -2057 -2056#1 -2440 --92 -78#1 --79#2 --79#1 --79#0 --80 --81#5 --81#4 --81#3 --81#2 --81#1 --81#0 --226 --227#1 --227#0 -2605#0 -2605#1 -2605#2 -3182 -300 -301 -1048 -3174 -692 -2447 -3176 -2446#0 --2446#0 --3176 --2447"/>
    </vehicle>
    <vehicle id="19635" depart="36000.00" departLane="free" departSpeed="max" fromTaz="11" toTaz="12" type="electricCar">
        <route edges="-122#0 --122#0 -121#2 --1924#2 --189 --686#0 --3344 --3359 --87 -110#0 --2015 --2016#2 --2715 --2716#2 --2716#1 --2716#0 --2716#8 --2716#7 --2716#6 -2975#0 -2975#1 --276#1 -249#0 --250 --413 --2434 --2433#0 --1302 --1303#1 --3296 --1299 --1300#0 --1300#4 --1300#3 --84 --2754 --945#3 --945#2 --3028 --3025#1 --3025#0"/>
    </vehicle>
    <vehicle id="277195" depart="36000.00" departLane="free" departSpeed="max" fromTaz="34" toTaz="1" type="electricCar">
        <route edges="-196#1 --196#1 --196#0 -2033 -1005 -1004 -868 -869#0 -869#1 -869#2 --871#3 --871#2 --871#1 --871#0 --871#9 --871#8 --871#7 -872#0 -872#1 -1954 -873 -2986#0 -2986#1 -1462#1 -2984 -1463#1 -1464 --1151#3 --1151#2 --1151#1 --1151#0 --1149#2 --1192#2 --1192#1 --705#3 --705#2 --705#1 --705#0 --3189 --706 --3192 --709#1 --709#0 --710 --711#1 --711#0 --309 --308 --3065#4 --3065#3 --3065#2 --3064#5 --3064#4 --3064#3 --3064#2 --3064#1 --3064#0 --769 --3178 --520 --3181 --770 --1383#4 --690#1 --690#0 --2456 --2457 --3263#6 --3263#5 --3263#4 --3263#3 --3263#2 --3263#1 --3263#0 --288#3 --288#2 --288#1 --288#0 -1992 -298 -299#0 -299#1 --2143 --2142 --917#2 --917#1 --1747 -1747"/>
    </vehicle>
    <vehicle id="314149" depart="36000.00" departLane="free" departSpeed="max" fromTaz="8" toTaz="18" type="electricCar">
        <route edges="--1775 --277#7 --277#6 --517 --3154 --516#1 --516#0 --3153 --1393#6 --1393#5 --1393#4 --1393#3 --1393#2 --1393#1 --1393#0 --18#5 --2725#4 --2725#3 --2725#2 --2725#1 --2725#0 -2974 --2972 --15 --14#1 --14#0 --14#8 --14#7 --76 --2726 --88#2 --88#1 -2709#0 -89#1 -90#3 -2018 --2716#7 --2716#6 --2716#5 -91#0 -91#1 -91#2 -2807#0 -2807#1 --2478 --762#1 --728#2 --728#1 --728#0 --182#3 --727 --719#4 --720 --265 --267#5 --267#4 --267#3 --267#2 --267#1 --267#0 --3217 --718#1 --718#0 --2561 --740#2 --740#1 --740#0 --3214 --750 --3212 --748#1 --748#0 --186 --187#4 --187#3 --187#2 --187#1 --187#0 -3208 --1319#4 -446#1 --1322#0"/>
    </vehicle>
    <vehicle id="318237" depart="36000.00" departLane="free" departSpeed="max" fromTaz="9" toTaz="10" type="electricCar">
        <route edges="--61#0 -61#0 --2725#3 --2725#2 --2725#1 --2725#0 -2974 --2972 --15 --14#1 --14#0 --14#8 --14#7 --76 --2726 --88#2 --88#1 -2709#0 -89#1 -90#3 -2018 --2716#7 --2716#6 --2716#5 -91#0 -91#1 -91#2 -2807#0 -2807#1 --2478 --762#1 --728#2 --728#1 --728#0 --182#3 --727 --719#4 --719#3 -721#0 -721#1 -721#2 -2983 -722 -737#0 -737#1 --2578 --2580 -2581#0 -2581#1 -212#5 -2723 -941#1 -942 -3225 --126"/>
    </vehicle>
    <vehicle id="247212" depart="36000.00" departLane="free" departSpeed="max" fromTaz="29" toTaz="16" type="electricCar">
        <route edges="--1205#0 --1927#4 -1227#1 -1227#2 -707#0 -1199#0 -1199#1 -1199#2 -295#5 -295#6 -295#7 --1830#4 --1830#3 --1830#2 --1830#1 --2168#2 --2168#1 --2168#0 --681 --3186 --680#3 --680#2 --680#1 --680#0 --679 --678 --697#3 --697#2 --505#6 --505#5 --505#4 --715#9 --715#8 --715#7 --715#6 --1469#4 --1469#3 --1469#2 --1469#1 --1469#0 --1470#2 --1470#1 --1470#0 --2686 --175#0 --175#3 --175#2"/>
    </vehicle>
    <vehicle id="154335" depart="36000.00" departLane="free" departSpeed="max" fromTaz="24" toTaz="22" type="electricCar">
        <route edges="--340#2 --2244 --2245#1 --2242 --3355 --2247 --3364 --2254#1 --2248 --2252#2 --37 -2255#0 --36#0 --840#4 --840#3 --840#2 --840#1 -839#0 -256 --1685#2 --1685#1 --1685#0 -1686#0 -1686#1 -1700 -1701 --1797#0 -860#2 -860#3 -2782 -2744 -2784#0 -2784#1 -2784#2 -1742#2 -2786#0 -356#0 -356#1 -356#2 -356#3"/>
    </vehicle>
    <vehicle id="200671" depart="36000.00" departLane="free" departSpeed="max" fromTaz="26" toTaz="24" type="electricCar">
        <route edges="-1054#2 -1054#3 --1049#1 --1050#3 --1050#2 --1050#1 -948#1 -950#5 -950#6 -950#7 -953 -1208#3 -1653 -314 -957#0 -957#1 -957#2 -957#3 -85 -961 -2754 -84 --1300#2 --1300#1 -1299 --1304 --1303#3 --2436 --2437#0 --2435 -413 -250 --249#0 -276#1 --2975#1 --2975#0 --2716#5 --2716#4 --2716#3 --2716#2 --2716#1 -2764 -822 -2760 --2761 --2968 --23 --326 --816 --817#1 --21#1 --21#0 --19#8 --19#7 --19#6 --19#5 --19#4 --19#3 --19#2 -20#0 -20#1 -20#2 -20#3 -20#4 -20#5 -20#6 -20#7 -20#8 -20#9 -20#10 -20#11 -20#12 -20#13 -20#14 -20#15 -3016#3 --3017 --329#1 --329#0 --329#7 --329#6 -340#0 -340#1 -340#2 --340#2"/>
    </vehicle>
    <vehicle id="108866" depart="36000.00" departLane="free" departSpeed="max" fromTaz="21" toTaz="18" type="electricCar">
        <route edges="--483#1 --2863#3 -477#2 -477#3 -477#4 -2950 --2941 -2942#0 -2942#1 -2942#2 -473#0 -473#1 -487#0 -487#1 -487#2 -180#0 -180#1 -180#2 -180#3 -180#4 -180#5 -180#6 -180#7 -505#0 -505#1 --2993#2 --1467 --171#1 --171#0 --715#6 --715#5 --715#4 --715#3 --715#2 --715#1 --715#0 --714#3 --66 --69#0 --69#6 --69#5 -2706#0 -2706#1 -90#2 -90#3 -2018 --2716#7 --2716#6 --2716#5 -91#0 -91#1 -91#2 -2807#0 -2807#1 --2478 --762#1 --728#2 --728#1 --728#0 --182#3 --727 --719#4 --720 --265 --267#5 --267#4 --267#3 --267#2 --267#1 --267#0 --3217 --718#1 --718#0 --2561 --740#2 --740#1 --740#0 --3214 --750 --3212 --748#1 --748#0 --186 --187#4 --187#3 --187#2 --187#1 --187#0 -3208 --1319#4 -446#1 --1322#0"/>
    </vehicle>
    <vehicle id="216109" depart="36000.00" departLane="free" departSpeed="max" fromTaz="27" toTaz="25" type="electricCar">
        <route edges="--2447 --692 --3174 --1048 --301 --300 --3182 --2605#2 --2605#1 --2605#0 -227#0 -227#1 -226 -81#0 -81#1 -81#2 -81#3 -81#4 -81#5 -80 -79#0 -79#1 -79#2 --78#1 -92 --2440 --2056#1 --2057 -2438 --1300#3 --1300#2 --1300#1 -1299 --1304 --1303#3 --2436 --2437#0 --2435 -413 -250 --249#0 -276#1 --2975#1 --2975#0 --2716#5 --2716#4 --2716#3 --2716#2 --2716#1 -2764 -822 -2760 --2760 --822"/>
    </vehicle>
    <vehicle id="31157" depart="36000.00" departLane="free" departSpeed="max" fromTaz="12" toTaz="28" type="electricCar">
        <route edges="--3025#0 --297#4 --297#3 --1999 --1997#0 --2430#2 --2430#1 --1170 --1173 --1174#3 --1174#2 --2000 --1176#2 --1177 --1187 --1186#0 --1186#6 --1186#5 --1186#4 --208#1 --1458#1 --1458#0 --1456 --2670#1 --2670#0 --1453#3 --2718 --2719#3 --738#3 --738#2 --738#1 --738#0 --292#1 --292#0 -201#3 -201#4 --3240 --3242 --3241 --1556 --1544 --1554 --1558 --199 --3237 --3235#1 --3235#0 --993 --595#2 --595#1 --595#0 --2296#2 --2296#1 --2296#0 --2296#8 -596#0 -596#1 -596#2 -596#3 -596#4 -596#5 -596#6 -596#7 -584#0 --583#0 --540#1 --540#0 --539#5 --2126"/>
    </vehicle>
    <vehicle id="225439" depart="36000.00" departLane="free" departSpeed="max" fromTaz="28" toTaz="18" type="electricCar">